Circuit: * C:\Users\iiitk\OneDrive\rak\Lab8_12_11_25\full_adder.asc

WARNING: Node N009 is floating.
WARNING: Node N019 is floating.
WARNING: Node N025 is floating.
WARNING: Node N016 is floating.
WARNING: Node N033 is floating.
WARNING: Node N037 is floating.
WARNING: Node N003 is floating.
WARNING: Node N017 is floating.
WARNING: Node N022 is floating.
WARNING: Node N013 is floating.
WARNING: Node N031 is floating.
WARNING: Node N036 is floating.
WARNING: Node N042 is floating.
WARNING: Node N044 is floating.

Instance "m42": Length shorter than recommended for a level 1 MOSFET.
Instance "m42": Width narrower than recommended for a level 1 MOSFET.
Instance "m40": Length shorter than recommended for a level 1 MOSFET.
Instance "m40": Width narrower than recommended for a level 1 MOSFET.
Instance "m39": Length shorter than recommended for a level 1 MOSFET.
Instance "m39": Width narrower than recommended for a level 1 MOSFET.
Instance "m36": Length shorter than recommended for a level 1 MOSFET.
Instance "m36": Width narrower than recommended for a level 1 MOSFET.
Instance "m34": Length shorter than recommended for a level 1 MOSFET.
Instance "m34": Width narrower than recommended for a level 1 MOSFET.
Instance "m33": Length shorter than recommended for a level 1 MOSFET.
Instance "m33": Width narrower than recommended for a level 1 MOSFET.
Instance "m30": Length shorter than recommended for a level 1 MOSFET.
Instance "m30": Width narrower than recommended for a level 1 MOSFET.
Instance "m29": Length shorter than recommended for a level 1 MOSFET.
Instance "m29": Width narrower than recommended for a level 1 MOSFET.
Instance "m28": Length shorter than recommended for a level 1 MOSFET.
Instance "m28": Width narrower than recommended for a level 1 MOSFET.
Instance "m27": Length shorter than recommended for a level 1 MOSFET.
Instance "m27": Width narrower than recommended for a level 1 MOSFET.
Instance "m26": Length shorter than recommended for a level 1 MOSFET.
Instance "m26": Width narrower than recommended for a level 1 MOSFET.
Instance "m25": Length shorter than recommended for a level 1 MOSFET.
Instance "m25": Width narrower than recommended for a level 1 MOSFET.
Instance "m18": Length shorter than recommended for a level 1 MOSFET.
Instance "m18": Width narrower than recommended for a level 1 MOSFET.
Instance "m16": Length shorter than recommended for a level 1 MOSFET.
Instance "m16": Width narrower than recommended for a level 1 MOSFET.
Instance "m15": Length shorter than recommended for a level 1 MOSFET.
Instance "m15": Width narrower than recommended for a level 1 MOSFET.
Instance "m12": Length shorter than recommended for a level 1 MOSFET.
Instance "m12": Width narrower than recommended for a level 1 MOSFET.
Instance "m11": Length shorter than recommended for a level 1 MOSFET.
Instance "m11": Width narrower than recommended for a level 1 MOSFET.
Instance "m10": Length shorter than recommended for a level 1 MOSFET.
Instance "m10": Width narrower than recommended for a level 1 MOSFET.
Instance "m9": Length shorter than recommended for a level 1 MOSFET.
Instance "m9": Width narrower than recommended for a level 1 MOSFET.
Instance "m8": Length shorter than recommended for a level 1 MOSFET.
Instance "m8": Width narrower than recommended for a level 1 MOSFET.
Instance "m7": Length shorter than recommended for a level 1 MOSFET.
Instance "m7": Width narrower than recommended for a level 1 MOSFET.
Instance "m41": Length shorter than recommended for a level 1 MOSFET.
Instance "m41": Width narrower than recommended for a level 1 MOSFET.
Instance "m38": Length shorter than recommended for a level 1 MOSFET.
Instance "m38": Width narrower than recommended for a level 1 MOSFET.
Instance "m37": Length shorter than recommended for a level 1 MOSFET.
Instance "m37": Width narrower than recommended for a level 1 MOSFET.
Instance "m35": Length shorter than recommended for a level 1 MOSFET.
Instance "m35": Width narrower than recommended for a level 1 MOSFET.
Instance "m32": Length shorter than recommended for a level 1 MOSFET.
Instance "m32": Width narrower than recommended for a level 1 MOSFET.
Instance "m31": Length shorter than recommended for a level 1 MOSFET.
Instance "m31": Width narrower than recommended for a level 1 MOSFET.
Instance "m24": Length shorter than recommended for a level 1 MOSFET.
Instance "m24": Width narrower than recommended for a level 1 MOSFET.
Instance "m23": Length shorter than recommended for a level 1 MOSFET.
Instance "m23": Width narrower than recommended for a level 1 MOSFET.
Instance "m22": Length shorter than recommended for a level 1 MOSFET.
Instance "m22": Width narrower than recommended for a level 1 MOSFET.
Instance "m21": Length shorter than recommended for a level 1 MOSFET.
Instance "m21": Width narrower than recommended for a level 1 MOSFET.
Instance "m20": Length shorter than recommended for a level 1 MOSFET.
Instance "m20": Width narrower than recommended for a level 1 MOSFET.
Instance "m19": Length shorter than recommended for a level 1 MOSFET.
Instance "m19": Width narrower than recommended for a level 1 MOSFET.
Instance "m17": Length shorter than recommended for a level 1 MOSFET.
Instance "m17": Width narrower than recommended for a level 1 MOSFET.
Instance "m14": Length shorter than recommended for a level 1 MOSFET.
Instance "m14": Width narrower than recommended for a level 1 MOSFET.
Instance "m13": Length shorter than recommended for a level 1 MOSFET.
Instance "m13": Width narrower than recommended for a level 1 MOSFET.
Instance "m6": Length shorter than recommended for a level 1 MOSFET.
Instance "m6": Width narrower than recommended for a level 1 MOSFET.
Instance "m5": Length shorter than recommended for a level 1 MOSFET.
Instance "m5": Width narrower than recommended for a level 1 MOSFET.
Instance "m4": Length shorter than recommended for a level 1 MOSFET.
Instance "m4": Width narrower than recommended for a level 1 MOSFET.
Instance "m3": Length shorter than recommended for a level 1 MOSFET.
Instance "m3": Width narrower than recommended for a level 1 MOSFET.
Instance "m2": Length shorter than recommended for a level 1 MOSFET.
Instance "m2": Width narrower than recommended for a level 1 MOSFET.
Instance "m1": Length shorter than recommended for a level 1 MOSFET.
Instance "m1": Width narrower than recommended for a level 1 MOSFET.
Direct Newton iteration for .op point succeeded.

Date: Wed Nov 12 12:53:54 2025
Total elapsed time: 13.902 seconds.

tnom = 27
temp = 27
method = modified trap
totiter = 164708
traniter = 164663
tranpoints = 80759
accept = 80573
rejected = 186
matrix size = 65
fillins = 13
solver = Normal
Thread vector: 4.6/2.8[3] 2.0/0.9[4] 0.7/1.5[1] 0.2/1.0[1]  2592/500
Matrix Compiler1: 5.90 KB object code size  0.6/0.4/[0.2]
Matrix Compiler2: off  [0.4]/0.6/0.4

