Circuit: * C:\Users\iiitk\OneDrive\Desktop\rak\lab3_20Aug\Draft1.asc

WARNING: Node N003 is floating.

Instance "m1": Length shorter than recommended for a level 1 MOSFET.
Instance "m1": Width narrower than recommended for a level 1 MOSFET.

Date: Wed Aug 20 16:54:23 2025
Total elapsed time: 0.037 seconds.

tnom = 27
temp = 27
method = trap
totiter = 393
traniter = 0
tranpoints = 0
accept = 0
rejected = 0
matrix size = 6
fillins = 0
solver = Normal
Matrix Compiler1:      13 opcodes  0.1/[0.0]/0.0
Matrix Compiler2:      38 opcodes  0.0/[0.0]/0.1

