Circuit: * C:\Users\iiitk\OneDrive\Desktop\rak\lab3_20Aug\Draft5.asc

Instance "m2": Length shorter than recommended for a level 1 MOSFET.
Instance "m2": Width narrower than recommended for a level 1 MOSFET.
Instance "m1": Length shorter than recommended for a level 1 MOSFET.
Instance "m1": Width narrower than recommended for a level 1 MOSFET.

Date: Wed Aug 20 10:41:20 2025
Total elapsed time: 0.077 seconds.

tnom = 27
temp = 27
method = trap
totiter = 373
traniter = 0
tranpoints = 0
accept = 0
rejected = 0
matrix size = 5
fillins = 0
solver = Normal
Matrix Compiler1: 132 bytes object code size  0.0/0.0/[0.0]
Matrix Compiler2:      28 opcodes  0.0/[0.0]/0.0

