Circuit: * C:\Users\iiitk\OneDrive\Desktop\rak\90nm_NMOS.asc

Instance "m1": Length shorter than recommended for a level 1 MOSFET.
Instance "m1": Width narrower than recommended for a level 1 MOSFET.
.OP point found by inspection.
.step vgs=0
.step vgs=0.2
.step vgs=0.4
.step vgs=0.6
.step vgs=0.8
.step vgs=1
.step vgs=1.2

Date: Wed Aug 13 09:54:25 2025
Total elapsed time: 0.191 seconds.

tnom = 27
temp = 27
method = trap
totiter = 192
traniter = 0
tranpoints = 0
accept = 0
rejected = 0
matrix size = 4
fillins = 0
solver = Normal
Matrix Compiler1: 118 bytes object code size  0.2/0.1/[0.1]
Matrix Compiler2: 216 bytes object code size  0.1/0.1/[0.1]

