Circuit: * C:\Users\iiitk\OneDrive\Desktop\rak\90nm_PMOS.asc

WARNING: Node N002 is floating.

Instance "m1": Length shorter than recommended for a level 1 MOSFET.
Instance "m1": Width narrower than recommended for a level 1 MOSFET.
.dc sweep increment has wrong sign -- fixing...

Date: Wed Aug 13 10:11:00 2025
Total elapsed time: 0.068 seconds.

tnom = 27
temp = 27
method = trap
totiter = 42
traniter = 0
tranpoints = 0
accept = 0
rejected = 0
matrix size = 5
fillins = 0
solver = Normal
Matrix Compiler1: 204 bytes object code size
Matrix Compiler2: 311 bytes object code size
