Circuit: * C:\Users\iiitk\OneDrive\Desktop\rak\exp1_NMOS.asc

Instance "m1": Length shorter than recommended for a level 1 MOSFET.
Instance "m1": Width narrower than recommended for a level 1 MOSFET.

Date: Wed Aug 13 09:49:28 2025
Total elapsed time: 0.069 seconds.

tnom = 27
temp = 27
method = trap
totiter = 28
traniter = 0
tranpoints = 0
accept = 0
rejected = 0
matrix size = 4
fillins = 0
solver = Normal
Matrix Compiler1: 118 bytes object code size
Matrix Compiler2: 216 bytes object code size
