Circuit: * C:\Users\iiitk\OneDrive\Desktop\rak\exp1_PMOS.asc

WARNING: Node N002 is floating.

Instance "m1": Length shorter than recommended for a level 1 MOSFET.
Instance "m1": Width narrower than recommended for a level 1 MOSFET.
.dc sweep increment has wrong sign -- fixing...
.dc sweep increment has wrong sign -- fixing...
.OP point found by inspection.
.step vsg=0
.step vsg=-0.2
.step vsg=-0.4
.step vsg=-0.6
.step vsg=-0.8
.step vsg=-1
.step vsg=-1.2
.step vsg=-1.4
.step vsg=-1.6
.step vsg=-1.8

Date: Wed Aug 13 09:38:28 2025
Total elapsed time: 0.164 seconds.

tnom = 27
temp = 27
method = trap
totiter = 465
traniter = 0
tranpoints = 0
accept = 0
rejected = 0
matrix size = 5
fillins = 0
solver = Normal
Matrix Compiler1: 204 bytes object code size  0.0/0.1/[0.0]
Matrix Compiler2: 311 bytes object code size  0.0/0.1/[0.0]

